*SPEF "ieee 1481-1999"
*DESIGN "config_reg_mux"
*DATE "11:11:11 Fri 11 11, 1111"
*VENDOR "OpenRCX"
*PROGRAM "Parallel Extraction"
*VERSION "1.0"
*DESIGN_FLOW "NAME_SCOPE LOCAL" "PIN_CAP NONE"
*DIVIDER /
*DELIMITER :
*BUS_DELIMITER []
*T_UNIT 1 NS
*C_UNIT 1 PF
*R_UNIT 1 OHM
*L_UNIT 1 HENRY

*NAME_MAP
*1 loopback_i
*2 loopback_o
*3 mux0_i[0]
*4 mux0_i[1]
*5 mux0_i[2]
*6 mux0_i[3]
*7 mux0_i[4]
*8 mux0_i[5]
*9 mux1_i[0]
*10 mux1_i[1]
*11 mux1_i[2]
*12 mux1_i[3]
*13 mux1_i[4]
*14 mux1_i[5]
*15 mux2_i[0]
*16 mux2_i[1]
*17 mux2_i[2]
*18 mux2_i[3]
*19 mux2_i[4]
*20 mux2_i[5]
*21 mux3_i[0]
*22 mux3_i[1]
*23 mux3_i[2]
*24 mux3_i[3]
*25 mux3_i[4]
*26 mux3_i[5]
*27 mux4_i[0]
*28 mux4_i[1]
*29 mux4_i[2]
*30 mux4_i[3]
*31 mux4_i[4]
*32 mux4_i[5]
*33 mux5_i[0]
*34 mux5_i[1]
*35 mux5_i[2]
*36 mux5_i[3]
*37 mux5_i[4]
*38 mux5_i[5]
*39 mux6_i[0]
*40 mux6_i[1]
*41 mux6_i[2]
*42 mux6_i[3]
*43 mux6_i[4]
*44 mux6_i[5]
*45 mux7_i[0]
*46 mux7_i[1]
*47 mux7_i[2]
*48 mux7_i[3]
*49 mux7_i[4]
*50 mux7_i[5]
*51 mux_adr_i[0]
*52 mux_adr_i[1]
*53 mux_adr_i[2]
*54 mux_o[0]
*55 mux_o[1]
*56 mux_o[2]
*57 mux_o[3]
*58 mux_o[4]
*59 mux_o[5]
*60 reg0_o[0]
*61 reg0_o[10]
*62 reg0_o[11]
*63 reg0_o[12]
*64 reg0_o[13]
*65 reg0_o[14]
*66 reg0_o[15]
*67 reg0_o[1]
*68 reg0_o[2]
*69 reg0_o[3]
*70 reg0_o[4]
*71 reg0_o[5]
*72 reg0_o[6]
*73 reg0_o[7]
*74 reg0_o[8]
*75 reg0_o[9]
*76 reg1_o[0]
*77 reg1_o[10]
*78 reg1_o[11]
*79 reg1_o[12]
*80 reg1_o[13]
*81 reg1_o[14]
*82 reg1_o[15]
*83 reg1_o[1]
*84 reg1_o[2]
*85 reg1_o[3]
*86 reg1_o[4]
*87 reg1_o[5]
*88 reg1_o[6]
*89 reg1_o[7]
*90 reg1_o[8]
*91 reg1_o[9]
*92 reg2_o[0]
*93 reg2_o[10]
*94 reg2_o[11]
*95 reg2_o[12]
*96 reg2_o[13]
*97 reg2_o[14]
*98 reg2_o[15]
*99 reg2_o[1]
*100 reg2_o[2]
*101 reg2_o[3]
*102 reg2_o[4]
*103 reg2_o[5]
*104 reg2_o[6]
*105 reg2_o[7]
*106 reg2_o[8]
*107 reg2_o[9]
*108 reg3_o[0]
*109 reg3_o[10]
*110 reg3_o[11]
*111 reg3_o[12]
*112 reg3_o[13]
*113 reg3_o[14]
*114 reg3_o[15]
*115 reg3_o[1]
*116 reg3_o[2]
*117 reg3_o[3]
*118 reg3_o[4]
*119 reg3_o[5]
*120 reg3_o[6]
*121 reg3_o[7]
*122 reg3_o[8]
*123 reg3_o[9]
*124 reg_adr_i[0]
*125 reg_adr_i[1]
*126 reg_dat_i[0]
*127 reg_dat_i[10]
*128 reg_dat_i[11]
*129 reg_dat_i[12]
*130 reg_dat_i[13]
*131 reg_dat_i[14]
*132 reg_dat_i[15]
*133 reg_dat_i[1]
*134 reg_dat_i[2]
*135 reg_dat_i[3]
*136 reg_dat_i[4]
*137 reg_dat_i[5]
*138 reg_dat_i[6]
*139 reg_dat_i[7]
*140 reg_dat_i[8]
*141 reg_dat_i[9]
*142 reg_wr_i
*143 rst_n_i
*144 temp0_dac_i[0]
*145 temp0_dac_i[1]
*146 temp0_dac_i[2]
*147 temp0_dac_i[3]
*148 temp0_dac_i[4]
*149 temp0_dac_i[5]
*150 temp0_ticks_i[0]
*151 temp0_ticks_i[10]
*152 temp0_ticks_i[11]
*153 temp0_ticks_i[1]
*154 temp0_ticks_i[2]
*155 temp0_ticks_i[3]
*156 temp0_ticks_i[4]
*157 temp0_ticks_i[5]
*158 temp0_ticks_i[6]
*159 temp0_ticks_i[7]
*160 temp0_ticks_i[8]
*161 temp0_ticks_i[9]
*162 temp1_dac_i[0]
*163 temp1_dac_i[1]
*164 temp1_dac_i[2]
*165 temp1_dac_i[3]
*166 temp1_dac_i[4]
*167 temp1_dac_i[5]
*168 temp1_ticks_i[0]
*169 temp1_ticks_i[10]
*170 temp1_ticks_i[11]
*171 temp1_ticks_i[1]
*172 temp1_ticks_i[2]
*173 temp1_ticks_i[3]
*174 temp1_ticks_i[4]
*175 temp1_ticks_i[5]
*176 temp1_ticks_i[6]
*177 temp1_ticks_i[7]
*178 temp1_ticks_i[8]
*179 temp1_ticks_i[9]
*180 temp2_dac_i[0]
*181 temp2_dac_i[1]
*182 temp2_dac_i[2]
*183 temp2_dac_i[3]
*184 temp2_dac_i[4]
*185 temp2_dac_i[5]
*186 temp2_ticks_i[0]
*187 temp2_ticks_i[10]
*188 temp2_ticks_i[11]
*189 temp2_ticks_i[1]
*190 temp2_ticks_i[2]
*191 temp2_ticks_i[3]
*192 temp2_ticks_i[4]
*193 temp2_ticks_i[5]
*194 temp2_ticks_i[6]
*195 temp2_ticks_i[7]
*196 temp2_ticks_i[8]
*197 temp2_ticks_i[9]
*198 temp3_dac_i[0]
*199 temp3_dac_i[1]
*200 temp3_dac_i[2]
*201 temp3_dac_i[3]
*202 temp3_dac_i[4]
*203 temp3_dac_i[5]
*204 temp3_ticks_i[0]
*205 temp3_ticks_i[10]
*206 temp3_ticks_i[11]
*207 temp3_ticks_i[1]
*208 temp3_ticks_i[2]
*209 temp3_ticks_i[3]
*210 temp3_ticks_i[4]
*211 temp3_ticks_i[5]
*212 temp3_ticks_i[6]
*213 temp3_ticks_i[7]
*214 temp3_ticks_i[8]
*215 temp3_ticks_i[9]
*216 temp_dac_o[0]
*217 temp_dac_o[1]
*218 temp_dac_o[2]
*219 temp_dac_o[3]
*220 temp_dac_o[4]
*221 temp_dac_o[5]
*222 temp_sel_i[0]
*223 temp_sel_i[1]
*224 temp_ticks_o[0]
*225 temp_ticks_o[10]
*226 temp_ticks_o[11]
*227 temp_ticks_o[1]
*228 temp_ticks_o[2]
*229 temp_ticks_o[3]
*230 temp_ticks_o[4]
*231 temp_ticks_o[5]
*232 temp_ticks_o[6]
*233 temp_ticks_o[7]
*234 temp_ticks_o[8]
*235 temp_ticks_o[9]
*238 _000_
*239 _001_
*240 _002_
*241 _003_
*242 _004_
*243 _005_
*244 _006_
*245 _007_
*246 _008_
*247 _009_
*248 _010_
*249 _011_
*250 _012_
*251 _013_
*252 _014_
*253 _015_
*254 _016_
*255 _017_
*256 _018_
*257 _019_
*258 _020_
*259 _021_
*260 _022_
*261 _023_
*262 _024_
*263 _025_
*264 _026_
*265 _027_
*266 _028_
*267 _029_
*268 _030_
*269 _031_
*270 _032_
*271 _033_
*272 _034_
*273 _035_
*274 _036_
*275 _037_
*276 _038_
*277 _039_
*278 _040_
*279 _041_
*280 _042_
*281 _043_
*282 _044_
*283 _045_
*284 _046_
*285 _047_
*286 _048_
*287 _049_
*288 _050_
*289 _051_
*290 _052_
*291 _053_
*292 _054_
*293 _055_
*294 _056_
*295 _057_
*296 _058_
*297 _059_
*298 _060_
*299 _061_
*300 _062_
*301 _063_
*302 _064_
*303 _065_
*304 _066_
*305 _067_
*306 _068_
*307 _069_
*308 _070_
*309 _071_
*310 _072_
*311 _073_
*312 _074_
*313 _075_
*314 _076_
*315 _077_
*316 _078_
*317 _079_
*318 _080_
*319 _081_
*320 _082_
*321 _083_
*322 _084_
*323 _085_
*324 _086_
*325 _087_
*326 _088_
*327 _089_
*328 _090_
*329 _091_
*330 _092_
*331 _093_
*332 _094_
*333 _095_
*334 _096_
*335 _097_
*336 _098_
*337 _099_
*338 _100_
*339 _101_
*340 _102_
*341 _103_
*342 _104_
*343 _105_
*344 _106_
*345 _107_
*346 _108_
*347 _109_
*348 _110_
*349 _111_
*350 _112_
*351 _113_
*352 _114_
*353 _115_
*354 _116_
*355 _117_
*356 _118_
*357 _119_
*358 _120_
*359 _121_
*360 _122_
*361 _123_
*362 _124_
*363 _125_
*364 _126_
*365 _127_
*366 _128_
*367 _129_
*368 _130_
*369 _131_
*370 _132_
*371 _133_
*372 _134_
*373 _135_
*374 _136_
*375 _137_
*376 _138_
*377 _139_
*378 _140_
*379 _141_
*380 _142_
*381 _143_
*382 _144_
*383 _145_
*384 _146_
*385 _147_
*386 _148_
*387 _149_
*388 _150_
*389 _151_
*390 _152_
*391 _153_
*392 _154_
*393 _155_
*394 _156_
*395 _157_
*396 _158_
*397 _159_
*398 _160_
*399 _161_
*400 _162_
*401 _163_
*402 _164_
*403 _165_
*404 _166_
*405 _167_
*406 _168_
*407 _169_
*408 _170_
*409 _171_
*410 _172_
*411 _173_
*412 _174_
*413 _175_
*414 _176_
*415 _177_
*416 _178_
*417 _179_
*418 _180_
*419 _181_
*420 _182_
*421 _183_
*422 _184_
*423 _185_
*424 _186_
*425 _187_
*426 _188_
*427 _189_
*428 _190_
*429 _191_
*430 _192_
*431 _193_
*432 _194_
*433 _195_
*434 _196_
*435 _197_
*436 _198_
*437 _199_
*438 _200_
*439 _201_
*440 _202_
*441 _203_
*442 _204_
*443 _205_
*444 _206_
*445 _207_
*446 clknet_0_reg_wr_i
*447 clknet_3_0__leaf_reg_wr_i
*448 clknet_3_1__leaf_reg_wr_i
*449 clknet_3_2__leaf_reg_wr_i
*450 clknet_3_3__leaf_reg_wr_i
*451 clknet_3_4__leaf_reg_wr_i
*452 clknet_3_5__leaf_reg_wr_i
*453 clknet_3_6__leaf_reg_wr_i
*454 clknet_3_7__leaf_reg_wr_i
*455 net1
*456 net10
*457 net100
*458 net101
*459 net102
*460 net103
*461 net104
*462 net105
*463 net106
*464 net107
*465 net108
*466 net109
*467 net11
*468 net110
*469 net111
*470 net112
*471 net113
*472 net114
*473 net115
*474 net116
*475 net117
*476 net118
*477 net119
*478 net12
*479 net120
*480 net121
*481 net122
*482 net123
*483 net124
*484 net125
*485 net126
*486 net127
*487 net128
*488 net129
*489 net13
*490 net130
*491 net131
*492 net132
*493 net133
*494 net134
*495 net135
*496 net136
*497 net137
*498 net138
*499 net139
*500 net14
*501 net140
*502 net141
*503 net142
*504 net143
*505 net144
*506 net145
*507 net146
*508 net147
*509 net148
*510 net149
*511 net15
*512 net150
*513 net151
*514 net152
*515 net153
*516 net154
*517 net155
*518 net156
*519 net157
*520 net158
*521 net159
*522 net16
*523 net160
*524 net161
*525 net162
*526 net163
*527 net164
*528 net165
*529 net166
*530 net167
*531 net168
*532 net169
*533 net17
*534 net170
*535 net171
*536 net172
*537 net173
*538 net174
*539 net175
*540 net176
*541 net177
*542 net178
*543 net179
*544 net18
*545 net180
*546 net181
*547 net182
*548 net183
*549 net184
*550 net185
*551 net186
*552 net187
*553 net188
*554 net189
*555 net19
*556 net190
*557 net191
*558 net192
*559 net193
*560 net194
*561 net195
*562 net196
*563 net197
*564 net198
*565 net199
*566 net2
*567 net20
*568 net200
*569 net201
*570 net202
*571 net203
*572 net204
*573 net205
*574 net206
*575 net207
*576 net208
*577 net209
*578 net21
*579 net210
*580 net211
*581 net212
*582 net213
*583 net214
*584 net215
*585 net216
*586 net217
*587 net218
*588 net219
*589 net22
*590 net220
*591 net221
*592 net222
*593 net223
*594 net224
*595 net225
*596 net226
*597 net227
*598 net228
*599 net229
*600 net23
*601 net230
*602 net231
*603 net232
*604 net233
*605 net234
*606 net235
*607 net236
*608 net237
*609 net238
*610 net239
*611 net24
*612 net240
*613 net241
*614 net242
*615 net243
*616 net25
*617 net26
*618 net27
*619 net28
*620 net29
*621 net3
*622 net30
*623 net31
*624 net32
*625 net33
*626 net34
*627 net35
*628 net36
*629 net37
*630 net38
*631 net39
*632 net4
*633 net40
*634 net41
*635 net42
*636 net43
*637 net44
*638 net45
*639 net46
*640 net47
*641 net48
*642 net49
*643 net5
*644 net50
*645 net51
*646 net52
*647 net53
*648 net54
*649 net55
*650 net56
*651 net57
*652 net58
*653 net59
*654 net6
*655 net60
*656 net61
*657 net62
*658 net63
*659 net64
*660 net65
*661 net66
*662 net67
*663 net68
*664 net69
*665 net7
*666 net70
*667 net71
*668 net72
*669 net73
*670 net74
*671 net75
*672 net76
*673 net77
*674 net78
*675 net79
*676 net8
*677 net80
*678 net81
*679 net82
*680 net83
*681 net84
*682 net85
*683 net86
*684 net87
*685 net88
*686 net89
*687 net9
*688 net90
*689 net91
*690 net92
*691 net93
*692 net94
*693 net95
*694 net96
*695 net97
*696 net98
*697 net99
*698 ANTENNA__208__A0
*699 ANTENNA__208__A1
*700 ANTENNA__208__S
*701 ANTENNA__210__A0
*702 ANTENNA__210__A1
*703 ANTENNA__210__S
*704 ANTENNA__212__A0
*705 ANTENNA__212__A1
*706 ANTENNA__212__S
*707 ANTENNA__214__A0
*708 ANTENNA__214__A1
*709 ANTENNA__214__S
*710 ANTENNA__216__A0
*711 ANTENNA__216__A1
*712 ANTENNA__216__S
*713 ANTENNA__218__A0
*714 ANTENNA__218__A1
*715 ANTENNA__218__S
*716 ANTENNA__220__A0
*717 ANTENNA__220__A1
*718 ANTENNA__220__S
*719 ANTENNA__222__A0
*720 ANTENNA__222__A1
*721 ANTENNA__222__S
*722 ANTENNA__224__A0
*723 ANTENNA__224__A1
*724 ANTENNA__224__S
*725 ANTENNA__226__A1
*726 ANTENNA__226__S
*727 ANTENNA__228__A1
*728 ANTENNA__228__S
*729 ANTENNA__230__A1
*730 ANTENNA__230__S
*731 ANTENNA__232__A
*732 ANTENNA__233__A
*733 ANTENNA__234__A
*734 ANTENNA__236__A
*735 ANTENNA__237__A
*736 ANTENNA__237__C_N
*737 ANTENNA__238__A
*738 ANTENNA__240__A_N
*739 ANTENNA__240__B
*740 ANTENNA__241__A
*741 ANTENNA__243__A
*742 ANTENNA__243__B
*743 ANTENNA__243__C
*744 ANTENNA__244__A_N
*745 ANTENNA__244__B
*746 ANTENNA__244__C
*747 ANTENNA__245__A_N
*748 ANTENNA__245__B
*749 ANTENNA__245__C
*750 ANTENNA__247__C
*751 ANTENNA__251__A
*752 ANTENNA__253__A1
*753 ANTENNA__260__A1
*754 ANTENNA__267__A1
*755 ANTENNA__274__A1
*756 ANTENNA__281__A1
*757 ANTENNA__283__A1
*758 ANTENNA__288__A1
*759 ANTENNA__289__A
*760 ANTENNA__290__A
*761 ANTENNA__291__S0
*762 ANTENNA__291__S1
*763 ANTENNA__293__S0
*764 ANTENNA__293__S1
*765 ANTENNA__295__S0
*766 ANTENNA__295__S1
*767 ANTENNA__296__A
*768 ANTENNA__297__S0
*769 ANTENNA__297__S1
*770 ANTENNA__299__S0
*771 ANTENNA__299__S1
*772 ANTENNA__301__S0
*773 ANTENNA__301__S1
*774 ANTENNA__303__A3
*775 ANTENNA__303__S0
*776 ANTENNA__303__S1
*777 ANTENNA__305__A3
*778 ANTENNA__305__S0
*779 ANTENNA__305__S1
*780 ANTENNA__307__A3
*781 ANTENNA__307__S0
*782 ANTENNA__307__S1
*783 ANTENNA__308__A
*784 ANTENNA__309__A3
*785 ANTENNA__309__S0
*786 ANTENNA__309__S1
*787 ANTENNA__310__A
*788 ANTENNA__311__A3
*789 ANTENNA__311__S0
*790 ANTENNA__311__S1
*791 ANTENNA__312__A
*792 ANTENNA__313__A3
*793 ANTENNA__313__S0
*794 ANTENNA__313__S1
*795 ANTENNA__315__A3
*796 ANTENNA__315__S0
*797 ANTENNA__315__S1
*798 ANTENNA__317__A3
*799 ANTENNA__317__S0
*800 ANTENNA__317__S1
*801 ANTENNA__319__A3
*802 ANTENNA__319__S0
*803 ANTENNA__319__S1
*804 ANTENNA__320__A
*805 ANTENNA__321__A3
*806 ANTENNA__321__S0
*807 ANTENNA__321__S1
*808 ANTENNA__322__A
*809 ANTENNA__323__A3
*810 ANTENNA__323__S0
*811 ANTENNA__323__S1
*812 ANTENNA__324__A
*813 ANTENNA__325__S0
*814 ANTENNA__325__S1
*815 ANTENNA__326__A
*816 ANTENNA__327__A
*817 ANTENNA__327__B
*818 ANTENNA__328__A
*819 ANTENNA__329__A0
*820 ANTENNA__329__A1
*821 ANTENNA__329__S
*822 ANTENNA__331__A0
*823 ANTENNA__331__A1
*824 ANTENNA__331__S
*825 ANTENNA__333__A0
*826 ANTENNA__333__A1
*827 ANTENNA__333__S
*828 ANTENNA__335__A0
*829 ANTENNA__335__A1
*830 ANTENNA__335__S
*831 ANTENNA__337__A0
*832 ANTENNA__337__A1
*833 ANTENNA__337__S
*834 ANTENNA__339__A0
*835 ANTENNA__339__A1
*836 ANTENNA__339__S
*837 ANTENNA__341__A0
*838 ANTENNA__341__A1
*839 ANTENNA__341__S
*840 ANTENNA__343__A0
*841 ANTENNA__343__A1
*842 ANTENNA__343__S
*843 ANTENNA__345__A0
*844 ANTENNA__345__A1
*845 ANTENNA__345__S
*846 ANTENNA__347__A0
*847 ANTENNA__347__A1
*848 ANTENNA__347__S
*849 ANTENNA__349__A0
*850 ANTENNA__349__A1
*851 ANTENNA__349__S
*852 ANTENNA__351__A0
*853 ANTENNA__351__A1
*854 ANTENNA__351__S
*855 ANTENNA__353__A0
*856 ANTENNA__353__A1
*857 ANTENNA__353__S
*858 ANTENNA__355__A1
*859 ANTENNA__355__S
*860 ANTENNA__357__A1
*861 ANTENNA__357__S
*862 ANTENNA__359__A1
*863 ANTENNA__359__S
*864 ANTENNA__361__A
*865 ANTENNA__361__B
*866 ANTENNA__364__A0
*867 ANTENNA__364__S
*868 ANTENNA__366__A0
*869 ANTENNA__366__S
*870 ANTENNA__368__A0
*871 ANTENNA__368__S
*872 ANTENNA__370__A0
*873 ANTENNA__370__S
*874 ANTENNA__372__A0
*875 ANTENNA__372__S
*876 ANTENNA__374__A0
*877 ANTENNA__374__S
*878 ANTENNA__376__A0
*879 ANTENNA__376__S
*880 ANTENNA__378__A0
*881 ANTENNA__378__S
*882 ANTENNA__380__A0
*883 ANTENNA__380__A1
*884 ANTENNA__380__S
*885 ANTENNA__382__A0
*886 ANTENNA__382__A1
*887 ANTENNA__382__S
*888 ANTENNA__384__A0
*889 ANTENNA__384__A1
*890 ANTENNA__386__A0
*891 ANTENNA__386__A1
*892 ANTENNA__388__A0
*893 ANTENNA__388__A1
*894 ANTENNA__390__A1
*895 ANTENNA__392__A1
*896 ANTENNA__394__A1
*897 ANTENNA__396__A_N
*898 ANTENNA__396__B
*899 ANTENNA__398__A0
*900 ANTENNA__398__S
*901 ANTENNA__400__A0
*902 ANTENNA__400__S
*903 ANTENNA__402__A0
*904 ANTENNA__402__S
*905 ANTENNA__404__A0
*906 ANTENNA__404__S
*907 ANTENNA__406__A0
*908 ANTENNA__406__S
*909 ANTENNA__408__A0
*910 ANTENNA__408__S
*911 ANTENNA__410__A0
*912 ANTENNA__410__A1
*913 ANTENNA__410__S
*914 ANTENNA__412__A0
*915 ANTENNA__412__S
*916 ANTENNA__414__A0
*917 ANTENNA__414__A1
*918 ANTENNA__414__S
*919 ANTENNA__416__A0
*920 ANTENNA__416__A1
*921 ANTENNA__416__S
*922 ANTENNA__418__A0
*923 ANTENNA__418__A1
*924 ANTENNA__420__A0
*925 ANTENNA__420__A1
*926 ANTENNA__422__A0
*927 ANTENNA__422__A1
*928 ANTENNA__424__A1
*929 ANTENNA__426__A1
*930 ANTENNA__428__A1
*931 ANTENNA__430__A_N
*932 ANTENNA__430__B
*933 ANTENNA__431__A
*934 ANTENNA__432__A0
*935 ANTENNA__432__A1
*936 ANTENNA__432__S
*937 ANTENNA__434__A0
*938 ANTENNA__434__A1
*939 ANTENNA__434__S
*940 ANTENNA__436__A0
*941 ANTENNA__436__A1
*942 ANTENNA__436__S
*943 ANTENNA__438__A0
*944 ANTENNA__438__A1
*945 ANTENNA__438__S
*946 ANTENNA__443__D
*947 ANTENNA__445__D
*948 ANTENNA__478__D
*949 ANTENNA__480__D
*950 ANTENNA__483__D
*951 ANTENNA__498__D
*952 ANTENNA_clkbuf_0_reg_wr_i_A
*953 ANTENNA_clkbuf_3_0__f_reg_wr_i_A
*954 ANTENNA_clkbuf_3_1__f_reg_wr_i_A
*955 ANTENNA_clkbuf_3_2__f_reg_wr_i_A
*956 ANTENNA_clkbuf_3_3__f_reg_wr_i_A
*957 ANTENNA_clkbuf_3_4__f_reg_wr_i_A
*958 ANTENNA_clkbuf_3_5__f_reg_wr_i_A
*959 ANTENNA_clkbuf_3_6__f_reg_wr_i_A
*960 ANTENNA_clkbuf_3_7__f_reg_wr_i_A
*961 ANTENNA_fanout235_A
*962 ANTENNA_fanout236_A
*963 ANTENNA_fanout237_A
*964 ANTENNA_fanout238_A
*965 ANTENNA_fanout239_A
*966 ANTENNA_fanout240_A
*967 ANTENNA_fanout241_A
*968 ANTENNA_fanout242_A
*969 ANTENNA_input100_A
*970 ANTENNA_input101_A
*971 ANTENNA_input102_A
*972 ANTENNA_input103_A
*973 ANTENNA_input104_A
*974 ANTENNA_input105_A
*975 ANTENNA_input106_A
*976 ANTENNA_input107_A
*977 ANTENNA_input108_A
*978 ANTENNA_input109_A
*979 ANTENNA_input10_A
*980 ANTENNA_input110_A
*981 ANTENNA_input111_A
*982 ANTENNA_input112_A
*983 ANTENNA_input113_A
*984 ANTENNA_input114_A
*985 ANTENNA_input115_A
*986 ANTENNA_input116_A
*987 ANTENNA_input117_A
*988 ANTENNA_input118_A
*989 ANTENNA_input119_A
*990 ANTENNA_input11_A
*991 ANTENNA_input120_A
*992 ANTENNA_input121_A
*993 ANTENNA_input122_A
*994 ANTENNA_input123_A
*995 ANTENNA_input124_A
*996 ANTENNA_input125_A
*997 ANTENNA_input126_A
*998 ANTENNA_input127_A
*999 ANTENNA_input128_A
*1000 ANTENNA_input129_A
*1001 ANTENNA_input12_A
*1002 ANTENNA_input130_A
*1003 ANTENNA_input131_A
*1004 ANTENNA_input132_A
*1005 ANTENNA_input133_A
*1006 ANTENNA_input134_A
*1007 ANTENNA_input135_A
*1008 ANTENNA_input136_A
*1009 ANTENNA_input137_A
*1010 ANTENNA_input138_A
*1011 ANTENNA_input139_A
*1012 ANTENNA_input13_A
*1013 ANTENNA_input140_A
*1014 ANTENNA_input141_A
*1015 ANTENNA_input142_A
*1016 ANTENNA_input143_A
*1017 ANTENNA_input144_A
*1018 ANTENNA_input145_A
*1019 ANTENNA_input14_A
*1020 ANTENNA_input15_A
*1021 ANTENNA_input16_A
*1022 ANTENNA_input17_A
*1023 ANTENNA_input18_A
*1024 ANTENNA_input19_A
*1025 ANTENNA_input1_A
*1026 ANTENNA_input20_A
*1027 ANTENNA_input21_A
*1028 ANTENNA_input22_A
*1029 ANTENNA_input23_A
*1030 ANTENNA_input24_A
*1031 ANTENNA_input25_A
*1032 ANTENNA_input26_A
*1033 ANTENNA_input27_A
*1034 ANTENNA_input28_A
*1035 ANTENNA_input29_A
*1036 ANTENNA_input2_A
*1037 ANTENNA_input30_A
*1038 ANTENNA_input31_A
*1039 ANTENNA_input32_A
*1040 ANTENNA_input33_A
*1041 ANTENNA_input34_A
*1042 ANTENNA_input35_A
*1043 ANTENNA_input36_A
*1044 ANTENNA_input37_A
*1045 ANTENNA_input38_A
*1046 ANTENNA_input39_A
*1047 ANTENNA_input3_A
*1048 ANTENNA_input40_A
*1049 ANTENNA_input41_A
*1050 ANTENNA_input42_A
*1051 ANTENNA_input43_A
*1052 ANTENNA_input44_A
*1053 ANTENNA_input45_A
*1054 ANTENNA_input46_A
*1055 ANTENNA_input47_A
*1056 ANTENNA_input48_A
*1057 ANTENNA_input49_A
*1058 ANTENNA_input4_A
*1059 ANTENNA_input50_A
*1060 ANTENNA_input51_A
*1061 ANTENNA_input52_A
*1062 ANTENNA_input53_A
*1063 ANTENNA_input54_A
*1064 ANTENNA_input55_A
*1065 ANTENNA_input56_A
*1066 ANTENNA_input57_A
*1067 ANTENNA_input58_A
*1068 ANTENNA_input59_A
*1069 ANTENNA_input5_A
*1070 ANTENNA_input60_A
*1071 ANTENNA_input61_A
*1072 ANTENNA_input62_A
*1073 ANTENNA_input63_A
*1074 ANTENNA_input64_A
*1075 ANTENNA_input65_A
*1076 ANTENNA_input66_A
*1077 ANTENNA_input67_A
*1078 ANTENNA_input68_A
*1079 ANTENNA_input69_A
*1080 ANTENNA_input6_A
*1081 ANTENNA_input70_A
*1082 ANTENNA_input71_A
*1083 ANTENNA_input72_A
*1084 ANTENNA_input73_A
*1085 ANTENNA_input74_A
*1086 ANTENNA_input75_A
*1087 ANTENNA_input76_A
*1088 ANTENNA_input77_A
*1089 ANTENNA_input78_A
*1090 ANTENNA_input79_A
*1091 ANTENNA_input7_A
*1092 ANTENNA_input80_A
*1093 ANTENNA_input81_A
*1094 ANTENNA_input82_A
*1095 ANTENNA_input83_A
*1096 ANTENNA_input84_A
*1097 ANTENNA_input85_A
*1098 ANTENNA_input86_A
*1099 ANTENNA_input87_A
*1100 ANTENNA_input88_A
*1101 ANTENNA_input89_A
*1102 ANTENNA_input8_A
*1103 ANTENNA_input90_A
*1104 ANTENNA_input91_A
*1105 ANTENNA_input92_A
*1106 ANTENNA_input93_A
*1107 ANTENNA_input94_A
*1108 ANTENNA_input95_A
*1109 ANTENNA_input96_A
*1110 ANTENNA_input97_A
*1111 ANTENNA_input98_A
*1112 ANTENNA_input99_A
*1113 ANTENNA_input9_A
*1114 ANTENNA_output147_A
*1115 ANTENNA_output148_A
*1116 ANTENNA_output149_A
*1117 ANTENNA_output150_A
*1118 ANTENNA_output151_A
*1119 ANTENNA_output152_A
*1120 ANTENNA_output154_A
*1121 ANTENNA_output155_A
*1122 ANTENNA_output156_A
*1123 ANTENNA_output157_A
*1124 ANTENNA_output158_A
*1125 ANTENNA_output159_A
*1126 ANTENNA_output167_A
*1127 ANTENNA_output168_A
*1128 ANTENNA_output170_A
*1129 ANTENNA_output171_A
*1130 ANTENNA_output172_A
*1131 ANTENNA_output173_A
*1132 ANTENNA_output174_A
*1133 ANTENNA_output175_A
*1134 ANTENNA_output181_A
*1135 ANTENNA_output183_A
*1136 ANTENNA_output184_A
*1137 ANTENNA_output185_A
*1138 ANTENNA_output186_A
*1139 ANTENNA_output187_A
*1140 ANTENNA_output188_A
*1141 ANTENNA_output189_A
*1142 ANTENNA_output190_A
*1143 ANTENNA_output191_A
*1144 ANTENNA_output192_A
*1145 ANTENNA_output193_A
*1146 ANTENNA_output194_A
*1147 ANTENNA_output195_A
*1148 ANTENNA_output196_A
*1149 ANTENNA_output197_A
*1150 ANTENNA_output198_A
*1151 ANTENNA_output199_A
*1152 ANTENNA_output200_A
*1153 ANTENNA_output201_A
*1154 ANTENNA_output202_A
*1155 ANTENNA_output203_A
*1156 ANTENNA_output204_A
*1157 ANTENNA_output205_A
*1158 ANTENNA_output206_A
*1159 ANTENNA_output207_A
*1160 ANTENNA_output208_A
*1161 ANTENNA_output209_A
*1162 ANTENNA_output210_A
*1163 ANTENNA_output211_A
*1164 ANTENNA_output212_A
*1165 ANTENNA_output213_A
*1166 ANTENNA_output214_A
*1167 ANTENNA_output215_A
*1168 ANTENNA_output216_A
*1169 ANTENNA_output217_A
*1170 ANTENNA_output218_A
*1171 ANTENNA_output220_A
*1172 ANTENNA_output221_A
*1173 ANTENNA_output222_A
*1174 ANTENNA_output223_A
*1175 ANTENNA_output226_A
*1176 ANTENNA_output230_A
*1177 ANTENNA_output231_A
*1178 ANTENNA_output232_A
*1179 FILLER_0_10
*1180 FILLER_0_102
*1181 FILLER_0_110
*1182 FILLER_0_113
*1183 FILLER_0_118
*1184 FILLER_0_126
*1185 FILLER_0_138
*1186 FILLER_0_141
*1187 FILLER_0_145
*1188 FILLER_0_150
*1189 FILLER_0_162
*1190 FILLER_0_169
*1191 FILLER_0_17
*1192 FILLER_0_175
*1193 FILLER_0_183
*1194 FILLER_0_194
*1195 FILLER_0_197
*1196 FILLER_0_202
*1197 FILLER_0_208
*1198 FILLER_0_222
*1199 FILLER_0_225
*1200 FILLER_0_229
*1201 FILLER_0_23
*1202 FILLER_0_233
*1203 FILLER_0_239
*1204 FILLER_0_250
*1205 FILLER_0_253
*1206 FILLER_0_26
*1207 FILLER_0_261
*1208 FILLER_0_265
*1209 FILLER_0_270
*1210 FILLER_0_278
*1211 FILLER_0_281
*1212 FILLER_0_29
*1213 FILLER_0_294
*1214 FILLER_0_3
*1215 FILLER_0_306
*1216 FILLER_0_309
*1217 FILLER_0_313
*1218 FILLER_0_318
*1219 FILLER_0_330
*1220 FILLER_0_337
*1221 FILLER_0_34
*1222 FILLER_0_343
*1223 FILLER_0_349
*1224 FILLER_0_354
*1225 FILLER_0_362
*1226 FILLER_0_365
*1227 FILLER_0_376
*1228 FILLER_0_386
*1229 FILLER_0_393
*1230 FILLER_0_399
*1231 FILLER_0_407
*1232 FILLER_0_415
*1233 FILLER_0_419
*1234 FILLER_0_42
*1235 FILLER_0_421
*1236 FILLER_0_427
*1237 FILLER_0_433
*1238 FILLER_0_438
*1239 FILLER_0_444
*1240 FILLER_0_449
*1241 FILLER_0_455
*1242 FILLER_0_463
*1243 FILLER_0_469
*1244 FILLER_0_474
*1245 FILLER_0_477
*1246 FILLER_0_481
*1247 FILLER_0_486
*1248 FILLER_0_498
*1249 FILLER_0_505
*1250 FILLER_0_511
*1251 FILLER_0_517
*1252 FILLER_0_522
*1253 FILLER_0_528
*1254 FILLER_0_533
*1255 FILLER_0_539
*1256 FILLER_0_54
*1257 FILLER_0_547
*1258 FILLER_0_553
*1259 FILLER_0_558
*1260 FILLER_0_561
*1261 FILLER_0_565
*1262 FILLER_0_57
*1263 FILLER_0_570
*1264 FILLER_0_582
*1265 FILLER_0_589
*1266 FILLER_0_595
*1267 FILLER_0_601
*1268 FILLER_0_605
*1269 FILLER_0_61
*1270 FILLER_0_614
*1271 FILLER_0_617
*1272 FILLER_0_623
*1273 FILLER_0_66
*1274 FILLER_0_7
*1275 FILLER_0_78
*1276 FILLER_0_85
*1277 FILLER_0_91
*1278 FILLER_0_97
*1279 FILLER_100_101
*1280 FILLER_100_113
*1281 FILLER_100_121
*1282 FILLER_100_126
*1283 FILLER_100_138
*1284 FILLER_100_141
*1285 FILLER_100_149
*1286 FILLER_100_152
*1287 FILLER_100_164
*1288 FILLER_100_178
*1289 FILLER_100_190
*1290 FILLER_100_197
*1291 FILLER_100_201
*1292 FILLER_100_204
*1293 FILLER_100_21
*1294 FILLER_100_216
*1295 FILLER_100_223
*1296 FILLER_100_227
*1297 FILLER_100_230
*1298 FILLER_100_242
*1299 FILLER_100_250
*1300 FILLER_100_253
*1301 FILLER_100_257
*1302 FILLER_100_26
*1303 FILLER_100_269
*1304 FILLER_100_281
*1305 FILLER_100_29
*1306 FILLER_100_295
*1307 FILLER_100_3
*1308 FILLER_100_307
*1309 FILLER_100_309
*1310 FILLER_100_317
*1311 FILLER_100_329
*1312 FILLER_100_339
*1313 FILLER_100_35
*1314 FILLER_100_351
*1315 FILLER_100_363
*1316 FILLER_100_365
*1317 FILLER_100_371
*1318 FILLER_100_374
*1319 FILLER_100_382
*1320 FILLER_100_386
*1321 FILLER_100_398
*1322 FILLER_100_403
*1323 FILLER_100_414
*1324 FILLER_100_421
*1325 FILLER_100_433
*1326 FILLER_100_438
*1327 FILLER_100_450
*1328 FILLER_100_466
*1329 FILLER_100_47
*1330 FILLER_100_474
*1331 FILLER_100_477
*1332 FILLER_100_481
*1333 FILLER_100_493
*1334 FILLER_100_507
*1335 FILLER_100_519
*1336 FILLER_100_531
*1337 FILLER_100_533
*1338 FILLER_100_537
*1339 FILLER_100_549
*1340 FILLER_100_555
*1341 FILLER_100_567
*1342 FILLER_100_57
*1343 FILLER_100_581
*1344 FILLER_100_587
*1345 FILLER_100_589
*1346 FILLER_100_593
*1347 FILLER_100_596
*1348 FILLER_100_602
*1349 FILLER_100_609
*1350 FILLER_100_616
*1351 FILLER_100_623
*1352 FILLER_100_71
*1353 FILLER_100_79
*1354 FILLER_100_82
*1355 FILLER_100_85
*1356 FILLER_100_89
*1357 FILLER_100_9
*1358 FILLER_101_103
*1359 FILLER_101_107
*1360 FILLER_101_110
*1361 FILLER_101_113
*1362 FILLER_101_118
*1363 FILLER_101_12
*1364 FILLER_101_129
*1365 FILLER_101_135
*1366 FILLER_101_138
*1367 FILLER_101_141
*1368 FILLER_101_146
*1369 FILLER_101_155
*1370 FILLER_101_163
*1371 FILLER_101_166
*1372 FILLER_101_169
*1373 FILLER_101_174
*1374 FILLER_101_181
*1375 FILLER_101_187
*1376 FILLER_101_194
*1377 FILLER_101_197
*1378 FILLER_101_203
*1379 FILLER_101_207
*1380 FILLER_101_213
*1381 FILLER_101_220
*1382 FILLER_101_225
*1383 FILLER_101_229
*1384 FILLER_101_233
*1385 FILLER_101_239
*1386 FILLER_101_246
*1387 FILLER_101_253
*1388 FILLER_101_259
*1389 FILLER_101_26
*1390 FILLER_101_265
*1391 FILLER_101_272
*1392 FILLER_101_278
*1393 FILLER_101_281
*1394 FILLER_101_286
*1395 FILLER_101_29
*1396 FILLER_101_294
*1397 FILLER_101_298
*1398 FILLER_101_3
*1399 FILLER_101_306
*1400 FILLER_101_309
*1401 FILLER_101_314
*1402 FILLER_101_320
*1403 FILLER_101_324
*1404 FILLER_101_330
*1405 FILLER_101_337
*1406 FILLER_101_342
*1407 FILLER_101_346
*1408 FILLER_101_350
*1409 FILLER_101_356
*1410 FILLER_101_362
*1411 FILLER_101_365
*1412 FILLER_101_370
*1413 FILLER_101_377
*1414 FILLER_101_38
*1415 FILLER_101_385
*1416 FILLER_101_389
*1417 FILLER_101_393
*1418 FILLER_101_402
*1419 FILLER_101_408
*1420 FILLER_101_415
*1421 FILLER_101_419
*1422 FILLER_101_421
*1423 FILLER_101_428
*1424 FILLER_101_434
*1425 FILLER_101_441
*1426 FILLER_101_447
*1427 FILLER_101_449
*1428 FILLER_101_454
*1429 FILLER_101_460
*1430 FILLER_101_467
*1431 FILLER_101_473
*1432 FILLER_101_477
*1433 FILLER_101_482
*1434 FILLER_101_493
*1435 FILLER_101_499
*1436 FILLER_101_503
*1437 FILLER_101_505
*1438 FILLER_101_510
*1439 FILLER_101_519
*1440 FILLER_101_525
*1441 FILLER_101_531
*1442 FILLER_101_533
*1443 FILLER_101_538
*1444 FILLER_101_54
*1445 FILLER_101_545
*1446 FILLER_101_551
*1447 FILLER_101_558
*1448 FILLER_101_561
*1449 FILLER_101_567
*1450 FILLER_101_57
*1451 FILLER_101_571
*1452 FILLER_101_577
*1453 FILLER_101_584
*1454 FILLER_101_589
*1455 FILLER_101_593
*1456 FILLER_101_597
*1457 FILLER_101_603
*1458 FILLER_101_61
*1459 FILLER_101_610
*1460 FILLER_101_617
*1461 FILLER_101_623
*1462 FILLER_101_69
*1463 FILLER_101_82
*1464 FILLER_101_85
*1465 FILLER_101_90
*1466 FILLER_101_96
*1467 FILLER_10_109
*1468 FILLER_10_121
*1469 FILLER_10_133
*1470 FILLER_10_139
*1471 FILLER_10_141
*1472 FILLER_10_153
*1473 FILLER_10_159
*1474 FILLER_10_17
*1475 FILLER_10_183
*1476 FILLER_10_195
*1477 FILLER_10_197
*1478 FILLER_10_209
*1479 FILLER_10_219
*1480 FILLER_10_225
*1481 FILLER_10_23
*1482 FILLER_10_238
*1483 FILLER_10_250
*1484 FILLER_10_253
*1485 FILLER_10_265
*1486 FILLER_10_27
*1487 FILLER_10_277
*1488 FILLER_10_289
*1489 FILLER_10_29
*1490 FILLER_10_3
*1491 FILLER_10_301
*1492 FILLER_10_307
*1493 FILLER_10_309
*1494 FILLER_10_321
*1495 FILLER_10_333
*1496 FILLER_10_345
*1497 FILLER_10_35
*1498 FILLER_10_357
*1499 FILLER_10_363
*1500 FILLER_10_365
*1501 FILLER_10_377
*1502 FILLER_10_389
*1503 FILLER_10_401
*1504 FILLER_10_413
*1505 FILLER_10_419
*1506 FILLER_10_421
*1507 FILLER_10_433
*1508 FILLER_10_445
*1509 FILLER_10_457
*1510 FILLER_10_469
*1511 FILLER_10_475
*1512 FILLER_10_477
*1513 FILLER_10_489
*1514 FILLER_10_501
*1515 FILLER_10_513
*1516 FILLER_10_525
*1517 FILLER_10_531
*1518 FILLER_10_533
*1519 FILLER_10_545
*1520 FILLER_10_557
*1521 FILLER_10_56
*1522 FILLER_10_569
*1523 FILLER_10_581
*1524 FILLER_10_587
*1525 FILLER_10_589
*1526 FILLER_10_601
*1527 FILLER_10_607
*1528 FILLER_10_610
*1529 FILLER_10_616
*1530 FILLER_10_623
*1531 FILLER_10_68
*1532 FILLER_10_80
*1533 FILLER_10_85
*1534 FILLER_10_9
*1535 FILLER_10_97
*1536 FILLER_11_105
*1537 FILLER_11_111
*1538 FILLER_11_113
*1539 FILLER_11_121
*1540 FILLER_11_125
*1541 FILLER_11_149
*1542 FILLER_11_161
*1543 FILLER_11_167
*1544 FILLER_11_169
*1545 FILLER_11_18
*1546 FILLER_11_181
*1547 FILLER_11_193
*1548 FILLER_11_205
*1549 FILLER_11_217
*1550 FILLER_11_223
*1551 FILLER_11_225
*1552 FILLER_11_230
*1553 FILLER_11_242
*1554 FILLER_11_25
*1555 FILLER_11_254
*1556 FILLER_11_266
*1557 FILLER_11_278
*1558 FILLER_11_281
*1559 FILLER_11_293
*1560 FILLER_11_3
*1561 FILLER_11_305
*1562 FILLER_11_31
*1563 FILLER_11_317
*1564 FILLER_11_329
*1565 FILLER_11_335
*1566 FILLER_11_337
*1567 FILLER_11_349
*1568 FILLER_11_361
*1569 FILLER_11_373
*1570 FILLER_11_385
*1571 FILLER_11_391
*1572 FILLER_11_393
*1573 FILLER_11_405
*1574 FILLER_11_417
*1575 FILLER_11_429
*1576 FILLER_11_43
*1577 FILLER_11_441
*1578 FILLER_11_447
*1579 FILLER_11_449
*1580 FILLER_11_461
*1581 FILLER_11_473
*1582 FILLER_11_485
*1583 FILLER_11_497
*1584 FILLER_11_503
*1585 FILLER_11_505
*1586 FILLER_11_517
*1587 FILLER_11_529
*1588 FILLER_11_541
*1589 FILLER_11_55
*1590 FILLER_11_553
*1591 FILLER_11_559
*1592 FILLER_11_561
*1593 FILLER_11_57
*1594 FILLER_11_573
*1595 FILLER_11_585
*1596 FILLER_11_593
*1597 FILLER_11_614
*1598 FILLER_11_617
*1599 FILLER_11_623
*1600 FILLER_11_69
*1601 FILLER_11_81
*1602 FILLER_11_93
*1603 FILLER_12_101
*1604 FILLER_12_125
*1605 FILLER_12_133
*1606 FILLER_12_139
*1607 FILLER_12_141
*1608 FILLER_12_145
*1609 FILLER_12_157
*1610 FILLER_12_169
*1611 FILLER_12_17
*1612 FILLER_12_181
*1613 FILLER_12_193
*1614 FILLER_12_197
*1615 FILLER_12_20
*1616 FILLER_12_205
*1617 FILLER_12_210
*1618 FILLER_12_218
*1619 FILLER_12_231
*1620 FILLER_12_237
*1621 FILLER_12_249
*1622 FILLER_12_253
*1623 FILLER_12_265
*1624 FILLER_12_277
*1625 FILLER_12_289
*1626 FILLER_12_29
*1627 FILLER_12_3
*1628 FILLER_12_301
*1629 FILLER_12_307