*SPEF "ieee 1481-1999"
*DESIGN "tempsense"
*DATE "11:11:11 Fri 11 11, 1111"
*VENDOR "OpenRCX"
*PROGRAM "Parallel Extraction"
*VERSION "1.0"
*DESIGN_FLOW "NAME_SCOPE LOCAL" "PIN_CAP NONE"
*DIVIDER /
*DELIMITER :
*BUS_DELIMITER []
*T_UNIT 1 NS
*C_UNIT 1 PF
*R_UNIT 1 OHM
*L_UNIT 1 HENRY

*NAME_MAP
*1 clk
*2 conversion_finished_out
*3 rst_n
*4 start_conv_in
*5 tick_result_out[0]
*6 tick_result_out[10]
*7 tick_result_out[11]
*8 tick_result_out[1]
*9 tick_result_out[2]
*10 tick_result_out[3]
*11 tick_result_out[4]
*12 tick_result_out[5]
*13 tick_result_out[6]
*14 tick_result_out[7]
*15 tick_result_out[8]
*16 tick_result_out[9]
*18 vdac_result_out[0]
*19 vdac_result_out[1]
*20 vdac_result_out[2]
*21 vdac_result_out[3]
*22 vdac_result_out[4]
*23 vdac_result_out[5]
*25 _000_
*26 _001_
*27 _002_
*28 _003_
*29 _004_
*30 _005_
*31 _006_
*32 _007_
*33 _008_
*34 _009_
*35 _010_
*36 _011_
*37 _012_
*38 _013_
*39 _014_
*40 _015_
*41 _016_
*42 _017_
*43 _018_
*44 _019_
*45 _020_
*46 _021_
*47 _022_
*48 _023_
*49 _024_
*50 _025_
*51 _026_
*52 _027_
*53 _028_
*54 _029_
*55 _030_
*56 _031_
*57 _032_
*58 _033_
*59 _034_
*60 _035_
*61 _036_
*62 _037_
*63 _038_
*64 _039_
*65 _040_
*66 _041_
*67 _042_
*68 _043_
*69 _044_
*70 _045_
*71 _046_
*72 _047_
*73 _048_
*74 _049_
*75 _050_
*76 _051_
*77 _052_
*78 _053_
*79 _054_
*80 _055_
*81 _056_
*82 _057_
*83 _058_
*84 _059_
*85 _060_
*86 _061_
*87 _062_
*88 _063_
*89 _064_
*90 _065_
*91 _066_
*92 _067_
*93 _068_
*94 _069_
*95 _070_
*96 _071_
*97 _072_
*98 _073_
*99 _074_
*100 _075_
*101 _076_
*102 _077_
*103 _078_
*104 _079_
*105 _080_
*106 _081_
*107 _082_
*108 _083_
*109 _084_
*110 _085_
*111 _086_
*112 _087_
*113 _088_
*114 _089_
*115 _090_
*116 _091_
*117 _092_
*118 _093_
*119 _094_
*120 _095_
*121 _096_
*122 _097_
*123 _098_
*124 _099_
*125 _100_
*126 _101_
*127 _102_
*128 _103_
*129 _104_
*130 _105_
*131 _106_
*132 _107_
*133 _108_
*134 _109_
*135 _110_
*136 _111_
*137 _112_
*138 _113_
*139 _114_
*140 _115_
*141 _116_
*142 _117_
*143 _118_
*144 _119_
*145 _120_
*146 _121_
*147 _122_
*148 _123_
*149 _124_
*150 _125_
*151 _126_
*152 _127_
*153 _128_
*154 _129_
*155 _130_
*156 _131_
*157 _132_
*158 _133_
*159 _134_
*160 _135_
*161 _136_
*162 _137_
*163 _138_
*164 _139_
*165 _140_
*166 clknet_0_clk
*167 clknet_3_0__leaf_clk
*168 clknet_3_1__leaf_clk
*169 clknet_3_2__leaf_clk
*170 clknet_3_3__leaf_clk
*171 clknet_3_4__leaf_clk
*172 clknet_3_5__leaf_clk
*173 clknet_3_6__leaf_clk
*174 clknet_3_7__leaf_clk
*175 dac\.parallel_cells\[0\]\.vdac_batch\.en_pupd
*176 dac\.parallel_cells\[0\]\.vdac_batch\.en_vref
*177 dac\.parallel_cells\[0\]\.vdac_batch\.npu_pd
*178 dac\.parallel_cells\[0\]\.vdac_batch\.vout_analog
*179 dac\.parallel_cells\[1\]\.vdac_batch\.en_pupd
*180 dac\.parallel_cells\[1\]\.vdac_batch\.en_vref
*181 dac\.parallel_cells\[1\]\.vdac_batch\.npu_pd
*182 dac\.parallel_cells\[2\]\.vdac_batch\.en_pupd
*183 dac\.parallel_cells\[2\]\.vdac_batch\.en_vref
*184 dac\.parallel_cells\[2\]\.vdac_batch\.npu_pd
*185 dac\.parallel_cells\[3\]\.vdac_batch\.en_pupd
*186 dac\.parallel_cells\[3\]\.vdac_batch\.en_vref
*187 dac\.parallel_cells\[3\]\.vdac_batch\.npu_pd
*188 dac\.parallel_cells\[4\]\.vdac_batch\.en_pupd
*189 dac\.parallel_cells\[4\]\.vdac_batch\.en_vref
*190 dac\.parallel_cells\[4\]\.vdac_batch\.npu_pd
*191 dac\.vdac_single\.en_pupd
*192 dcdc_trig_n_analog_w
*193 dcdc_trigd_w
*194 net1
*195 net10
*196 net11
*197 net12
*198 net13
*199 net14
*200 net15
*201 net16
*202 net17
*203 net18
*204 net19
*205 net2
*206 net20
*207 net21
*208 net22
*209 net23
*210 net24
*211 net25
*212 net26
*213 net27
*214 net28
*215 net29
*216 net3
*217 net30
*218 net4
*219 net5
*220 net6
*221 net7
*222 net8
*223 net9
*224 sar\.compare_end_w
*225 sar\.counter_r\[0\]
*226 sar\.counter_r\[10\]
*227 sar\.counter_r\[11\]
*228 sar\.counter_r\[1\]
*229 sar\.counter_r\[2\]
*230 sar\.counter_r\[3\]
*231 sar\.counter_r\[4\]
*232 sar\.counter_r\[5\]
*233 sar\.counter_r\[6\]
*234 sar\.counter_r\[7\]
*235 sar\.counter_r\[9\]
*236 sar\.current_dac_bit_r\[0\]
*237 sar\.current_dac_bit_r\[1\]
*238 sar\.current_dac_bit_r\[2\]
*239 sar\.current_dac_bit_r\[3\]
*240 sar\.current_dac_bit_r\[4\]
*241 sar\.current_dac_bit_r\[5\]
*242 sar\.dac_value_r\[0\]
*243 sar\.dac_value_r\[1\]
*244 sar\.dac_value_r\[2\]
*245 sar\.dac_value_r\[3\]
*246 sar\.dac_value_r\[4\]
*247 sar\.dac_value_r\[5\]
*248 sar\.dcdc_dat_out
*249 sar\.next_counter_w\[0\]
*250 sar\.next_counter_w\[10\]
*251 sar\.next_counter_w\[11\]
*252 sar\.next_counter_w\[1\]
*253 sar\.next_counter_w\[2\]
*254 sar\.next_counter_w\[3\]
*255 sar\.next_counter_w\[4\]
*256 sar\.next_counter_w\[5\]
*257 sar\.next_counter_w\[6\]
*258 sar\.next_counter_w\[7\]
*259 sar\.next_counter_w\[8\]
*260 sar\.next_counter_w\[9\]
*261 sar\.next_ticks_w\[0\]
*262 sar\.next_ticks_w\[10\]
*263 sar\.next_ticks_w\[11\]
*264 sar\.next_ticks_w\[1\]
*265 sar\.next_ticks_w\[2\]
*266 sar\.next_ticks_w\[3\]
*267 sar\.next_ticks_w\[4\]
*268 sar\.next_ticks_w\[5\]
*269 sar\.next_ticks_w\[6\]
*270 sar\.next_ticks_w\[7\]
*271 sar\.next_ticks_w\[8\]
*272 sar\.next_ticks_w\[9\]
*273 sar\.state_r\[0\]
*274 sar\.state_r\[1\]
*275 sar\.state_r\[2\]
*276 sar\.ticks_r\[0\]
*277 sar\.ticks_r\[10\]
*278 sar\.ticks_r\[11\]
*279 sar\.ticks_r\[1\]
*280 sar\.ticks_r\[2\]
*281 sar\.ticks_r\[3\]
*282 sar\.ticks_r\[4\]
*283 sar\.ticks_r\[5\]
*284 sar\.ticks_r\[6\]
*285 sar\.ticks_r\[7\]
*286 sar\.ticks_r\[8\]
*287 sar\.ticks_r\[9\]
*288 sar\.time_trigd_n_in
*289 ANTENNA__150__S
*290 ANTENNA__152__S
*291 ANTENNA__154__S
*292 ANTENNA__156__S
*293 ANTENNA__158__S
*294 ANTENNA__160__S
*295 ANTENNA__162__S
*296 ANTENNA__164__S
*297 ANTENNA__166__S
*298 ANTENNA__168__S
*299 ANTENNA__184__B
*300 ANTENNA__216__A
*301 ANTENNA__237__A
*302 ANTENNA__240__A
*303 ANTENNA__243__A
*304 ANTENNA__244__A
*305 ANTENNA__247__A
*306 ANTENNA__248__A
*307 ANTENNA__251__A
*308 ANTENNA__252__A
*309 ANTENNA__255__A
*310 ANTENNA__256__A
*311 ANTENNA__258__A
*312 ANTENNA__259__S
*313 ANTENNA__261__S
*314 ANTENNA__263__S
*315 ANTENNA__265__S
*316 ANTENNA__267__S
*317 ANTENNA__269__S
*318 ANTENNA__287__S
*319 ANTENNA__289__S
*320 ANTENNA__291__S
*321 ANTENNA__293__S
*322 ANTENNA__295__S
*323 ANTENNA__297__S
*324 ANTENNA__300__A2
*325 ANTENNA__300__B1
*326 ANTENNA__305__A
*327 ANTENNA__306__B1
*328 ANTENNA__307__B1
*329 ANTENNA__308__B1
*330 ANTENNA__309__B1
*331 ANTENNA__310__C1
*332 ANTENNA__324__A2
*333 ANTENNA__336__RESET_B
*334 ANTENNA__337__RESET_B
*335 ANTENNA__338__RESET_B
*336 ANTENNA__339__RESET_B
*337 ANTENNA__363__RESET_B
*338 ANTENNA_clkbuf_0_clk_A
*339 ANTENNA_clkbuf_3_0__f_clk_A
*340 ANTENNA_clkbuf_3_1__f_clk_A
*341 ANTENNA_clkbuf_3_2__f_clk_A
*342 ANTENNA_clkbuf_3_3__f_clk_A
*343 ANTENNA_clkbuf_3_4__f_clk_A
*344 ANTENNA_clkbuf_3_5__f_clk_A
*345 ANTENNA_clkbuf_3_6__f_clk_A
*346 ANTENNA_clkbuf_3_7__f_clk_A
*347 ANTENNA_dac\.parallel_cells\[0\]\.vdac_batch\.einvp_batch\[0\]\.vref_A
*348 ANTENNA_dac\.parallel_cells\[1\]\.vdac_batch\.einvp_batch\[0\]\.vref_A
*349 ANTENNA_dac\.parallel_cells\[1\]\.vdac_batch\.einvp_batch\[1\]\.vref_A
*350 ANTENNA_dac\.parallel_cells\[2\]\.vdac_batch\.einvp_batch\[0\]\.vref_A
*351 ANTENNA_dac\.parallel_cells\[2\]\.vdac_batch\.einvp_batch\[1\]\.vref_A
*352 ANTENNA_dac\.parallel_cells\[2\]\.vdac_batch\.einvp_batch\[2\]\.vref_A
*353 ANTENNA_dac\.parallel_cells\[2\]\.vdac_batch\.einvp_batch\[3\]\.vref_A
*354 ANTENNA_dac\.parallel_cells\[3\]\.vdac_batch\.einvp_batch\[0\]\.vref_A
*355 ANTENNA_dac\.parallel_cells\[3\]\.vdac_batch\.einvp_batch\[1\]\.vref_A
*356 ANTENNA_dac\.parallel_cells\[3\]\.vdac_batch\.einvp_batch\[2\]\.vref_A
*357 ANTENNA_dac\.parallel_cells\[3\]\.vdac_batch\.einvp_batch\[3\]\.vref_A
*358 ANTENNA_dac\.parallel_cells\[3\]\.vdac_batch\.einvp_batch\[4\]\.vref_A
*359 ANTENNA_dac\.parallel_cells\[3\]\.vdac_batch\.einvp_batch\[5\]\.vref_A
*360 ANTENNA_dac\.parallel_cells\[3\]\.vdac_batch\.einvp_batch\[6\]\.vref_A
*361 ANTENNA_dac\.parallel_cells\[3\]\.vdac_batch\.einvp_batch\[7\]\.vref_A
*362 ANTENNA_dac\.parallel_cells\[4\]\.vdac_batch\.einvp_batch\[0\]\.vref_A
*363 ANTENNA_dac\.parallel_cells\[4\]\.vdac_batch\.einvp_batch\[10\]\.vref_A
*364 ANTENNA_dac\.parallel_cells\[4\]\.vdac_batch\.einvp_batch\[11\]\.vref_A
*365 ANTENNA_dac\.parallel_cells\[4\]\.vdac_batch\.einvp_batch\[12\]\.vref_A
*366 ANTENNA_dac\.parallel_cells\[4\]\.vdac_batch\.einvp_batch\[13\]\.vref_A
*367 ANTENNA_dac\.parallel_cells\[4\]\.vdac_batch\.einvp_batch\[14\]\.vref_A
*368 ANTENNA_dac\.parallel_cells\[4\]\.vdac_batch\.einvp_batch\[15\]\.vref_A
*369 ANTENNA_dac\.parallel_cells\[4\]\.vdac_batch\.einvp_batch\[1\]\.vref_A
*370 ANTENNA_dac\.parallel_cells\[4\]\.vdac_batch\.einvp_batch\[2\]\.vref_A
*371 ANTENNA_dac\.parallel_cells\[4\]\.vdac_batch\.einvp_batch\[3\]\.vref_A
*372 ANTENNA_dac\.parallel_cells\[4\]\.vdac_batch\.einvp_batch\[4\]\.vref_A
*373 ANTENNA_dac\.parallel_cells\[4\]\.vdac_batch\.einvp_batch\[5\]\.vref_A
*374 ANTENNA_dac\.parallel_cells\[4\]\.vdac_batch\.einvp_batch\[6\]\.vref_A
*375 ANTENNA_dac\.parallel_cells\[4\]\.vdac_batch\.einvp_batch\[7\]\.vref_A
*376 ANTENNA_dac\.parallel_cells\[4\]\.vdac_batch\.einvp_batch\[8\]\.vref_A
*377 ANTENNA_dac\.parallel_cells\[4\]\.vdac_batch\.einvp_batch\[9\]\.vref_A
*378 ANTENNA_dac\.vdac_single\.einvp_batch\[0\]\.vref_A
*379 ANTENNA_dcdc_TE
*380 ANTENNA_fanout23_A
*381 ANTENNA_fanout25_A
*382 ANTENNA_fanout27_A
*383 ANTENNA_input1_A
*384 ANTENNA_input2_A
*385 FILLER_0_109
*386 FILLER_0_113
*387 FILLER_0_117
*388 FILLER_0_121
*389 FILLER_0_133
*390 FILLER_0_139
*391 FILLER_0_141
*392 FILLER_0_15
*393 FILLER_0_153
*394 FILLER_0_165
*395 FILLER_0_169
*396 FILLER_0_181
*397 FILLER_0_189
*398 FILLER_0_195
*399 FILLER_0_197
*400 FILLER_0_200
*401 FILLER_0_212
*402 FILLER_0_225
*403 FILLER_0_237
*404 FILLER_0_249
*405 FILLER_0_253
*406 FILLER_0_265
*407 FILLER_0_27
*408 FILLER_0_277
*409 FILLER_0_281
*410 FILLER_0_29
*411 FILLER_0_293
*412 FILLER_0_298
*413 FILLER_0_3
*414 FILLER_0_41
*415 FILLER_0_53
*416 FILLER_0_57
*417 FILLER_0_69
*418 FILLER_0_81
*419 FILLER_0_85
*420 FILLER_0_97
*421 FILLER_10_107
*422 FILLER_10_119
*423 FILLER_10_127
*424 FILLER_10_132
*425 FILLER_10_139
*426 FILLER_10_141
*427 FILLER_10_147
*428 FILLER_10_151
*429 FILLER_10_163
*430 FILLER_10_175
*431 FILLER_10_187
*432 FILLER_10_195
*433 FILLER_10_197
*434 FILLER_10_209
*435 FILLER_10_212
*436 FILLER_10_234
*437 FILLER_10_243
*438 FILLER_10_251
*439 FILLER_10_253
*440 FILLER_10_265
*441 FILLER_10_27
*442 FILLER_10_277
*443 FILLER_10_289
*444 FILLER_10_29
*445 FILLER_10_297
*446 FILLER_10_3
*447 FILLER_10_32
*448 FILLER_10_44
*449 FILLER_10_56
*450 FILLER_10_60
*451 FILLER_10_66
*452 FILLER_10_73
*453 FILLER_10_81
*454 FILLER_10_85
*455 FILLER_10_95
*456 FILLER_11_102
*457 FILLER_11_110
*458 FILLER_11_113
*459 FILLER_11_121
*460 FILLER_11_125
*461 FILLER_11_132
*462 FILLER_11_139
*463 FILLER_11_14
*464 FILLER_11_146
*465 FILLER_11_153
*466 FILLER_11_157
*467 FILLER_11_165
*468 FILLER_11_169
*469 FILLER_11_181
*470 FILLER_11_184
*471 FILLER_11_206
*472 FILLER_11_212
*473 FILLER_11_220
*474 FILLER_11_225
*475 FILLER_11_230
*476 FILLER_11_235
*477 FILLER_11_247
*478 FILLER_11_25
*479 FILLER_11_251
*480 FILLER_11_262
*481 FILLER_11_274
*482 FILLER_11_279
*483 FILLER_11_281
*484 FILLER_11_29
*485 FILLER_11_293
*486 FILLER_11_3
*487 FILLER_11_41
*488 FILLER_11_53
*489 FILLER_11_57
*490 FILLER_11_66
*491 FILLER_11_79
*492 FILLER_11_86
*493 FILLER_11_90
*494 FILLER_12_105
*495 FILLER_12_111
*496 FILLER_12_115
*497 FILLER_12_120
*498 FILLER_12_124
*499 FILLER_12_127
*500 FILLER_12_132
*501 FILLER_12_139
*502 FILLER_12_141
*503 FILLER_12_147
*504 FILLER_12_15
*505 FILLER_12_151
*506 FILLER_12_159
*507 FILLER_12_183
*508 FILLER_12_195
*509 FILLER_12_197
*510 FILLER_12_209
*511 FILLER_12_221
*512 FILLER_12_242
*513 FILLER_12_250
*514 FILLER_12_253
*515 FILLER_12_27
*516 FILLER_12_274
*517 FILLER_12_29
*518 FILLER_12_296
*519 FILLER_12_3
*520 FILLER_12_33
*521 FILLER_12_39
*522 FILLER_12_51
*523 FILLER_12_63
*524 FILLER_12_75
*525 FILLER_12_83
*526 FILLER_12_85
*527 FILLER_12_89
*528 FILLER_12_93
*529 FILLER_13_103
*530 FILLER_13_109
*531 FILLER_13_113
*532 FILLER_13_119
*533 FILLER_13_123
*534 FILLER_13_132
*535 FILLER_13_136
*536 FILLER_13_140
*537 FILLER_13_148
*538 FILLER_13_15
*539 FILLER_13_154
*540 FILLER_13_166
*541 FILLER_13_169
*542 FILLER_13_176
*543 FILLER_13_188
*544 FILLER_13_200
*545 FILLER_13_212
*546 FILLER_13_225
*547 FILLER_13_237
*548 FILLER_13_249
*549 FILLER_13_258
*550 FILLER_13_27
*551 FILLER_13_270
*552 FILLER_13_278
*553 FILLER_13_281
*554 FILLER_13_285
*555 FILLER_13_293
*556 FILLER_13_298
*557 FILLER_13_3
*558 FILLER_13_33
*559 FILLER_13_39
*560 FILLER_13_46
*561 FILLER_13_54
*562 FILLER_13_57
*563 FILLER_13_76
*564 FILLER_13_83
*565 FILLER_13_89
*566 FILLER_13_93
*567 FILLER_13_99
*568 FILLER_14_121
*569 FILLER_14_125
*570 FILLER_14_132
*571 FILLER_14_139
*572 FILLER_14_141
*573 FILLER_14_15
*574 FILLER_14_153
*575 FILLER_14_172
*576 FILLER_14_184
*577 FILLER_14_197
*578 FILLER_14_205
*579 FILLER_14_21
*580 FILLER_14_226
*581 FILLER_14_238
*582 FILLER_14_250
*583 FILLER_14_253
*584 FILLER_14_265
*585 FILLER_14_27
*586 FILLER_14_277
*587 FILLER_14_289
*588 FILLER_14_29
*589 FILLER_14_297
*590 FILLER_14_3
*591 FILLER_14_33
*592 FILLER_14_39
*593 FILLER_14_54
*594 FILLER_14_61
*595 FILLER_14_65
*596 FILLER_14_77
*597 FILLER_14_83
*598 FILLER_14_85
*599 FILLER_14_92
*600 FILLER_14_99
*601 FILLER_15_106
*602 FILLER_15_111
*603 FILLER_15_113
*604 FILLER_15_120
*605 FILLER_15_126
*606 FILLER_15_132
*607 FILLER_15_136
*608 FILLER_15_148
*609 FILLER_15_15
*610 FILLER_15_156
*611 FILLER_15_160
*612 FILLER_15_167
*613 FILLER_15_169
*614 FILLER_15_177
*615 FILLER_15_201
*616 FILLER_15_209
*617 FILLER_15_214
*618 FILLER_15_220
*619 FILLER_15_225
*620 FILLER_15_233
*621 FILLER_15_238
*622 FILLER_15_249
*623 FILLER_15_261
*624 FILLER_15_27
*625 FILLER_15_273
*626 FILLER_15_279
*627 FILLER_15_281
*628 FILLER_15_293
*629 FILLER_15_3
*630 FILLER_15_33
*631 FILLER_15_39
*632 FILLER_15_46
*633 FILLER_15_52
*634 FILLER_15_57
*635 FILLER_15_69
*636 FILLER_15_93
*637 FILLER_15_97
*638 FILLER_16_101
*639 FILLER_16_109
*640 FILLER_16_113
*641 FILLER_16_125
*642 FILLER_16_131
*643 FILLER_16_138
*644 FILLER_16_141
*645 FILLER_16_15
*646 FILLER_16_153
*647 FILLER_16_171
*648 FILLER_16_186
*649 FILLER_16_194
*650 FILLER_16_197
*651 FILLER_16_209
*652 FILLER_16_221
*653 FILLER_16_229
*654 FILLER_16_251
*655 FILLER_16_253
*656 FILLER_16_265
*657 FILLER_16_27
*658 FILLER_16_273
*659 FILLER_16_29
*660 FILLER_16_296
*661 FILLER_16_3
*662 FILLER_16_33
*663 FILLER_16_39
*664 FILLER_16_51
*665 FILLER_16_59
*666 FILLER_16_62
*667 FILLER_16_69
*668 FILLER_16_76
*669 FILLER_16_80
*670 FILLER_16_85
*671 FILLER_16_96
*672 FILLER_17_11
*673 FILLER_17_110
*674 FILLER_17_113
*675 FILLER_17_125
*676 FILLER_17_132
*677 FILLER_17_137
*678 FILLER_17_141
*679 FILLER_17_15
*680 FILLER_17_153
*681 FILLER_17_165
*682 FILLER_17_169
*683 FILLER_17_185
*684 FILLER_17_189
*685 FILLER_17_201
*686 FILLER_17_209
*687 FILLER_17_214
*688 FILLER_17_222
*689 FILLER_17_225
*690 FILLER_17_237
*691 FILLER_17_246
*692 FILLER_17_258
*693 FILLER_17_27
*694 FILLER_17_270
*695 FILLER_17_278
*696 FILLER_17_281
*697 FILLER_17_285
*698 FILLER_17_293
*699 FILLER_17_298
*700 FILLER_17_3
*701 FILLER_17_39
*702 FILLER_17_51
*703 FILLER_17_55
*704 FILLER_17_57
*705 FILLER_17_65
*706 FILLER_17_70
*707 FILLER_17_74
*708 FILLER_17_86
*709 FILLER_17_98
*710 FILLER_18_108
*711 FILLER_18_112
*712 FILLER_18_120
*713 FILLER_18_128
*714 FILLER_18_133
*715 FILLER_18_137
*716 FILLER_18_141
*717 FILLER_18_153
*718 FILLER_18_163
*719 FILLER_18_175
*720 FILLER_18_182
*721 FILLER_18_194
*722 FILLER_18_197
*723 FILLER_18_205
*724 FILLER_18_226
*725 FILLER_18_238
*726 FILLER_18_24
*727 FILLER_18_246
*728 FILLER_18_251
*729 FILLER_18_253
*730 FILLER_18_265
*731 FILLER_18_277
*732 FILLER_18_289
*733 FILLER_18_29
*734 FILLER_18_297
*735 FILLER_18_3
*736 FILLER_18_32
*737 FILLER_18_44
*738 FILLER_18_50
*739 FILLER_18_53
*740 FILLER_18_58
*741 FILLER_18_65
*742 FILLER_18_72
*743 FILLER_18_85
*744 FILLER_18_93
*745 FILLER_18_96
*746 FILLER_19_100
*747 FILLER_19_108
*748 FILLER_19_113
*749 FILLER_19_124
*750 FILLER_19_136
*751 FILLER_19_140
*752 FILLER_19_162
*753 FILLER_19_169
*754 FILLER_19_177
*755 FILLER_19_189
*756 FILLER_19_201
*757 FILLER_19_207
*758 FILLER_19_213
*759 FILLER_19_221
*760 FILLER_19_225
*761 FILLER_19_231
*762 FILLER_19_243
*763 FILLER_19_251
*764 FILLER_19_273
*765 FILLER_19_279
*766 FILLER_19_281
*767 FILLER_19_293
*768 FILLER_19_3
*769 FILLER_19_34
*770 FILLER_19_46
*771 FILLER_19_53
*772 FILLER_19_57
*773 FILLER_19_65
*774 FILLER_19_70
*775 FILLER_19_78
*776 FILLER_19_8
*777 FILLER_19_84
*778 FILLER_19_90
*779 FILLER_19_94
*780 FILLER_1_105
*781 FILLER_1_111
*782 FILLER_1_113
*783 FILLER_1_125
*784 FILLER_1_137
*785 FILLER_1_149
*786 FILLER_1_15
*787 FILLER_1_161
*788 FILLER_1_167
*789 FILLER_1_169
*790 FILLER_1_181
*791 FILLER_1_189
*792 FILLER_1_201
*793 FILLER_1_204
*794 FILLER_1_212
*795 FILLER_1_225
*796 FILLER_1_231
*797 FILLER_1_25
*798 FILLER_1_252
*799 FILLER_1_260
*800 FILLER_1_263
*801 FILLER_1_274
*802 FILLER_1_281
*803 FILLER_1_293
*804 FILLER_1_3
*805 FILLER_1_37
*806 FILLER_1_49
*807 FILLER_1_55
*808 FILLER_1_57
*809 FILLER_1_69
*810 FILLER_1_8
*811 FILLER_1_81
*812 FILLER_1_93
*813 FILLER_20_106
*814 FILLER_20_11
*815 FILLER_20_114
*816 FILLER_20_126
*817 FILLER_20_131
*818 FILLER_20_138
*819 FILLER_20_141
*820 FILLER_20_145
*821 FILLER_20_152
*822 FILLER_20_158
*823 FILLER_20_165
*824 FILLER_20_179
*825 FILLER_20_191
*826 FILLER_20_195
*827 FILLER_20_197
*828 FILLER_20_209
*829 FILLER_20_21
*830 FILLER_20_212
*831 FILLER_20_234
*832 FILLER_20_240
*833 FILLER_20_25
*834 FILLER_20_253
*835 FILLER_20_262
*836 FILLER_20_274
*837 FILLER_20_29
*838 FILLER_20_297
*839 FILLER_20_3
*840 FILLER_20_38
*841 FILLER_20_45
*842 FILLER_20_49
*843 FILLER_20_61
*844 FILLER_20_73
*845 FILLER_20_81
*846 FILLER_20_85
*847 FILLER_21_103
*848 FILLER_21_107
*849 FILLER_21_111
*850 FILLER_21_113
*851 FILLER_21_128
*852 FILLER_21_137
*853 FILLER_21_143
*854 FILLER_21_15
*855 FILLER_21_151
*856 FILLER_21_159
*857 FILLER_21_167
*858 FILLER_21_169
*859 FILLER_21_175
*860 FILLER_21_179
*861 FILLER_21_208
*862 FILLER_21_216
*863 FILLER_21_223
*864 FILLER_21_225
*865 FILLER_21_230
*866 FILLER_21_252
*867 FILLER_21_260
*868 FILLER_21_27
*869 FILLER_21_272
*870 FILLER_21_281
*871 FILLER_21_285
*872 FILLER_21_293
*873 FILLER_21_298
*874 FILLER_21_3
*875 FILLER_21_39
*876 FILLER_21_51
*877 FILLER_21_55
*878 FILLER_21_57
*879 FILLER_21_64
*880 FILLER_21_76
*881 FILLER_21_88
*882 FILLER_21_96
*883 FILLER_22_109
*884 FILLER_22_121
*885 FILLER_22_133
*886 FILLER_22_139
*887 FILLER_22_141
*888 FILLER_22_149
*889 FILLER_22_15
*890 FILLER_22_173
*891 FILLER_22_184
*892 FILLER_22_197
*893 FILLER_22_209
*894 FILLER_22_221
*895 FILLER_22_229
*896 FILLER_22_241
*897 FILLER_22_249
*898 FILLER_22_253
*899 FILLER_22_265
*900 FILLER_22_27
*901 FILLER_22_277
*902 FILLER_22_289
*903 FILLER_22_29
*904 FILLER_22_297
*905 FILLER_22_3
*906 FILLER_22_38
*907 FILLER_22_42
*908 FILLER_22_49
*909 FILLER_22_62
*910 FILLER_22_69
*911 FILLER_22_81
*912 FILLER_22_85
*913 FILLER_22_97
*914 FILLER_23_108
*915 FILLER_23_113
*916 FILLER_23_121
*917 FILLER_23_128
*918 FILLER_23_140
*919 FILLER_23_15
*920 FILLER_23_152
*921 FILLER_23_164
*922 FILLER_23_167
*923 FILLER_23_169
*924 FILLER_23_176
*925 FILLER_23_188
*926 FILLER_23_194
*927 FILLER_23_200
*928 FILLER_23_214
*929 FILLER_23_222
*930 FILLER_23_225
*931 FILLER_23_23
*932 FILLER_23_232
*933 FILLER_23_244
*934 FILLER_23_252
*935 FILLER_23_255
*936 FILLER_23_266
*937 FILLER_23_278
*938 FILLER_23_281
*939 FILLER_23_293
*940 FILLER_23_3
*941 FILLER_23_44
*942 FILLER_23_48
*943 FILLER_23_54
*944 FILLER_23_57
*945 FILLER_23_69
*946 FILLER_23_91
*947 FILLER_24_100
*948 FILLER_24_121
*949 FILLER_24_125
*950 FILLER_24_137
*951 FILLER_24_141
*952 FILLER_24_153
*953 FILLER_24_165
*954 FILLER_24_177
*955 FILLER_24_189
*956 FILLER_24_195
*957 FILLER_24_197
*958 FILLER_24_203
*959 FILLER_24_212
*960 FILLER_24_234
*961 FILLER_24_246
*962 FILLER_24_253
*963 FILLER_24_27
*964 FILLER_24_274
*965 FILLER_24_29
*966 FILLER_24_297
*967 FILLER_24_3
*968 FILLER_24_41
*969 FILLER_24_65
*970 FILLER_24_69
*971 FILLER_24_81
*972 FILLER_24_85
*973 FILLER_24_92
*974 FILLER_25_106
*975 FILLER_25_113
*976 FILLER_25_134
*977 FILLER_25_146
*978 FILLER_25_15
*979 FILLER_25_156
*980 FILLER_25_169
*981 FILLER_25_181
*982 FILLER_25_185
*983 FILLER_25_197
*984 FILLER_25_209
*985 FILLER_25_221
*986 FILLER_25_225
*987 FILLER_25_229
*988 FILLER_25_241
*989 FILLER_25_253
*990 FILLER_25_259
*991 FILLER_25_263
*992 FILLER_25_27
*993 FILLER_25_275
*994 FILLER_25_279
*995 FILLER_25_281
*996 FILLER_25_293
*997 FILLER_25_3
*998 FILLER_25_37
*999 FILLER_25_44
*1000 FILLER_25_48
*1001 FILLER_25_57
*1002 FILLER_25_69
*1003 FILLER_25_77
*1004 FILLER_25_85
*1005 FILLER_25_94
*1006 FILLER_26_100
*1007 FILLER_26_122
*1008 FILLER_26_134
*1009 FILLER_26_141
*1010 FILLER_26_15
*1011 FILLER_26_150
*1012 FILLER_26_174
*1013 FILLER_26_183
*1014 FILLER_26_193
*1015 FILLER_26_197
*1016 FILLER_26_202
*1017 FILLER_26_214
*1018 FILLER_26_222
*1019 FILLER_26_244
*1020 FILLER_26_248
*1021 FILLER_26_251
*1022 FILLER_26_253
*1023 FILLER_26_263
*1024 FILLER_26_27
*1025 FILLER_26_275
*1026 FILLER_26_287
*1027 FILLER_26_29
*1028 FILLER_26_293
*1029 FILLER_26_298
*1030 FILLER_26_3
*1031 FILLER_26_41
*1032 FILLER_26_53
*1033 FILLER_26_65
*1034 FILLER_26_75
*1035 FILLER_26_83
*1036 FILLER_26_85
*1037 FILLER_27_102
*1038 FILLER_27_110
*1039 FILLER_27_113
*1040 FILLER_27_125
*1041 FILLER_27_152
*1042 FILLER_27_156
*1043 FILLER_27_164
*1044 FILLER_27_169
*1045 FILLER_27_173
*1046 FILLER_27_179
*1047 FILLER_27_185
*1048 FILLER_27_193
*1049 FILLER_27_199
*1050 FILLER_27_207
*1051 FILLER_27_21
*1052 FILLER_27_213
*1053 FILLER_27_218
*1054 FILLER_27_225
*1055 FILLER_27_237
*1056 FILLER_27_241
*1057 FILLER_27_25
*1058 FILLER_27_263
*1059 FILLER_27_275
*1060 FILLER_27_279
*1061 FILLER_27_281
*1062 FILLER_27_293
*1063 FILLER_27_3
*1064 FILLER_27_37
*1065 FILLER_27_41
*1066 FILLER_27_47
*1067 FILLER_27_55
*1068 FILLER_27_57
*1069 FILLER_27_69
*1070 FILLER_27_8
*1071 FILLER_27_90
*1072 FILLER_28_109
*1073 FILLER_28_121
*1074 FILLER_28_133
*1075 FILLER_28_139
*1076 FILLER_28_141
*1077 FILLER_28_153
*1078 FILLER_28_168
*1079 FILLER_28_176
*1080 FILLER_28_187
*1081 FILLER_28_195
*1082 FILLER_28_197
*1083 FILLER_28_201
*1084 FILLER_28_210
*1085 FILLER_28_214
*1086 FILLER_28_222
*1087 FILLER_28_234
*1088 FILLER_28_24
*1089 FILLER_28_246
*1090 FILLER_28_253
*1091 FILLER_28_257
*1092 FILLER_28_269
*1093 FILLER_28_273
*1094 FILLER_28_29
*1095 FILLER_28_294
*1096 FILLER_28_298
*1097 FILLER_28_3
*1098 FILLER_28_40
*1099 FILLER_28_44
*1100 FILLER_28_53
*1101 FILLER_28_61
*1102 FILLER_28_69
*1103 FILLER_28_77
*1104 FILLER_28_83
*1105 FILLER_28_85
*1106 FILLER_28_97
*1107 FILLER_29_100
*1108 FILLER_29_11
*1109 FILLER_29_113
*1110 FILLER_29_125
*1111 FILLER_29_137
*1112 FILLER_29_149
*1113 FILLER_29_15
*1114 FILLER_29_161
*1115 FILLER_29_167
*1116 FILLER_29_169
*1117 FILLER_29_181
*1118 FILLER_29_193
*1119 FILLER_29_201
*1120 FILLER_29_223
*1121 FILLER_29_225
*1122 FILLER_29_237
*1123 FILLER_29_249
*1124 FILLER_29_254
*1125 FILLER_29_266
*1126 FILLER_29_274
*1127 FILLER_29_279
*1128 FILLER_29_281
*1129 FILLER_29_291
*1130 FILLER_29_3
*1131 FILLER_29_39
*1132 FILLER_29_43
*1133 FILLER_29_55
*1134 FILLER_29_57
*1135 FILLER_29_65
*1136 FILLER_29_88
*1137 FILLER_2_109
*1138 FILLER_2_121
*1139 FILLER_2_133
*1140 FILLER_2_139
*1141 FILLER_2_141
*1142 FILLER_2_153
*1143 FILLER_2_165
*1144 FILLER_2_177
*1145 FILLER_2_187
*1146 FILLER_2_195
*1147 FILLER_2_197
*1148 FILLER_2_218
*1149 FILLER_2_240
*1150 FILLER_2_253
*1151 FILLER_2_257
*1152 FILLER_2_26
*1153 FILLER_2_278
*1154 FILLER_2_285
*1155 FILLER_2_29
*1156 FILLER_2_293
*1157 FILLER_2_298
*1158 FILLER_2_3
*1159 FILLER_2_32
*1160 FILLER_2_44
*1161 FILLER_2_56
*1162 FILLER_2_68
*1163 FILLER_2_80
*1164 FILLER_2_85
*1165 FILLER_2_97
*1166 FILLER_30_109
*1167 FILLER_30_121
*1168 FILLER_30_133
*1169 FILLER_30_139
*1170 FILLER_30_141
*1171 FILLER_30_15
*1172 FILLER_30_153
*1173 FILLER_30_165
*1174 FILLER_30_177
*1175 FILLER_30_185
*1176 FILLER_30_189
*1177 FILLER_30_195
*1178 FILLER_30_197
*1179 FILLER_30_209
*1180 FILLER_30_220
*1181 FILLER_30_232
*1182 FILLER_30_244
*1183 FILLER_30_251
*1184 FILLER_30_253
*1185 FILLER_30_263
*1186 FILLER_30_27
*1187 FILLER_30_275
*1188 FILLER_30_287
*1189 FILLER_30_29
*1190 FILLER_30_293
*1191 FILLER_30_298
*1192 FILLER_30_3
*1193 FILLER_30_41
*1194 FILLER_30_62
*1195 FILLER_30_74
*1196 FILLER_30_82
*1197 FILLER_30_85
*1198 FILLER_30_97
*1199 FILLER_31_105
*1200 FILLER_31_111
*1201 FILLER_31_113
*1202 FILLER_31_125
*1203 FILLER_31_137
*1204 FILLER_31_149
*1205 FILLER_31_15
*1206 FILLER_31_161
*1207 FILLER_31_167
*1208 FILLER_31_169
*1209 FILLER_31_201
*1210 FILLER_31_213
*1211 FILLER_31_221
*1212 FILLER_31_225
*1213 FILLER_31_237
*1214 FILLER_31_261
*1215 FILLER_31_27
*1216 FILLER_31_273
*1217 FILLER_31_279
*1218 FILLER_31_281
*1219 FILLER_31_293
*1220 FILLER_31_3
*1221 FILLER_31_39
*1222 FILLER_31_51
*1223 FILLER_31_55
*1224 FILLER_31_57
*1225 FILLER_31_69
*1226 FILLER_31_81
*1227 FILLER_31_93
*1228 FILLER_32_109
*1229 FILLER_32_121
*1230 FILLER_32_133
*1231 FILLER_32_139
*1232 FILLER_32_141
*1233 FILLER_32_15
*1234 FILLER_32_153
*1235 FILLER_32_165
*1236 FILLER_32_171
*1237 FILLER_32_181
*1238 FILLER_32_193
*1239 FILLER_32_197
*1240 FILLER_32_209
*1241 FILLER_32_221
*1242 FILLER_32_229
*1243 FILLER_32_241
*1244 FILLER_32_249
*1245 FILLER_32_253
*1246 FILLER_32_265
*1247 FILLER_32_27
*1248 FILLER_32_271
*1249 FILLER_32_29
*1250 FILLER_32_292
*1251 FILLER_32_298
*1252 FILLER_32_3
*1253 FILLER_32_41
*1254 FILLER_32_53
*1255 FILLER_32_65
*1256 FILLER_32_77
*1257 FILLER_32_83
*1258 FILLER_32_85
*1259 FILLER_32_97
*1260 FILLER_33_105
*1261 FILLER_33_111
*1262 FILLER_33_113
*1263 FILLER_33_12
*1264 FILLER_33_125
*1265 FILLER_33_137
*1266 FILLER_33_149
*1267 FILLER_33_161
*1268 FILLER_33_167
*1269 FILLER_33_169
*1270 FILLER_33_17
*1271 FILLER_33_190
*1272 FILLER_33_202
*1273 FILLER_33_214
*1274 FILLER_33_222
*1275 FILLER_33_225
*1276 FILLER_33_235
*1277 FILLER_33_239
*1278 FILLER_33_251
*1279 FILLER_33_263
*1280 FILLER_33_275
*1281 FILLER_33_279
*1282 FILLER_33_28
*1283 FILLER_33_281
*1284 FILLER_33_291
*1285 FILLER_33_3
*1286 FILLER_33_32
*1287 FILLER_33_44
*1288 FILLER_33_57
*1289 FILLER_33_69
*1290 FILLER_33_81
*1291 FILLER_33_93
*1292 FILLER_34_109
*1293 FILLER_34_121
*1294 FILLER_34_133
*1295 FILLER_34_139
*1296 FILLER_34_141
*1297 FILLER_34_153
*1298 FILLER_34_165
*1299 FILLER_34_171
*1300 FILLER_34_175
*1301 FILLER_34_187
*1302 FILLER_34_195
*1303 FILLER_34_197
*1304 FILLER_34_214
*1305 FILLER_34_226
*1306 FILLER_34_230
*1307 FILLER_34_242
*1308 FILLER_34_250
*1309 FILLER_34_253
*1310 FILLER_34_265
*1311 FILLER_34_27
*1312 FILLER_34_273
*1313 FILLER_34_29
*1314 FILLER_34_295
*1315 FILLER_34_3
*1316 FILLER_34_39
*1317 FILLER_34_43
*1318 FILLER_34_55
*1319 FILLER_34_67
*1320 FILLER_34_79
*1321 FILLER_34_83
*1322 FILLER_34_85
*1323 FILLER_34_97
*1324 FILLER_35_105
*1325 FILLER_35_111
*1326 FILLER_35_113
*1327 FILLER_35_125
*1328 FILLER_35_137
*1329 FILLER_35_149
*1330 FILLER_35_161
*1331 FILLER_35_167
*1332 FILLER_35_169
*1333 FILLER_35_181
*1334 FILLER_35_193
*1335 FILLER_35_216
*1336 FILLER_35_225
*1337 FILLER_35_246
*1338 FILLER_35_251
*1339 FILLER_35_263
*1340 FILLER_35_278
*1341 FILLER_35_281
*1342 FILLER_35_285
*1343 FILLER_35_29
*1344 FILLER_35_293
*1345 FILLER_35_298
*1346 FILLER_35_3
*1347 FILLER_35_41
*1348 FILLER_35_53
*1349 FILLER_35_57
*1350 FILLER_35_69
*1351 FILLER_35_81
*1352 FILLER_35_93
*1353 FILLER_36_109
*1354 FILLER_36_121
*1355 FILLER_36_133
*1356 FILLER_36_139
*1357 FILLER_36_141
*1358 FILLER_36_15
*1359 FILLER_36_153
*1360 FILLER_36_165
*1361 FILLER_36_177
*1362 FILLER_36_189
*1363 FILLER_36_195
*1364 FILLER_36_197
*1365 FILLER_36_205
*1366 FILLER_36_209
*1367 FILLER_36_221
*1368 FILLER_36_229
*1369 FILLER_36_251
*1370 FILLER_36_253
*1371 FILLER_36_261
*1372 FILLER_36_27
*1373 FILLER_36_282
*1374 FILLER_36_29
*1375 FILLER_36_293
*1376 FILLER_36_3
*1377 FILLER_36_41
*1378 FILLER_36_53
*1379 FILLER_36_65
*1380 FILLER_36_77
*1381 FILLER_36_83
*1382 FILLER_36_85
*1383 FILLER_36_97
*1384 FILLER_37_105
*1385 FILLER_37_111
*1386 FILLER_37_113
*1387 FILLER_37_125
*1388 FILLER_37_137
*1389 FILLER_37_149
*1390 FILLER_37_161
*1391 FILLER_37_167
*1392 FILLER_37_169
*1393 FILLER_37_181
*1394 FILLER_37_193
*1395 FILLER_37_20
*1396 FILLER_37_205
*1397 FILLER_37_217
*1398 FILLER_37_223
*1399 FILLER_37_225
*1400 FILLER_37_237
*1401 FILLER_37_250
*1402 FILLER_37_262
*1403 FILLER_37_269
*1404 FILLER_37_277
*1405 FILLER_37_281
*1406 FILLER_37_293
*1407 FILLER_37_3
*1408 FILLER_37_32
*1409 FILLER_37_44
*1410 FILLER_37_57
*1411 FILLER_37_69
*1412 FILLER_37_8
*1413 FILLER_37_81
*1414 FILLER_37_93
*1415 FILLER_38_109
*1416 FILLER_38_121
*1417 FILLER_38_133
*1418 FILLER_38_139
*1419 FILLER_38_141
*1420 FILLER_38_15
*1421 FILLER_38_153
*1422 FILLER_38_165
*1423 FILLER_38_177
*1424 FILLER_38_189
*1425 FILLER_38_195
*1426 FILLER_38_197
*1427 FILLER_38_209
*1428 FILLER_38_221
*1429 FILLER_38_233
*1430 FILLER_38_245
*1431 FILLER_38_251
*1432 FILLER_38_253
*1433 FILLER_38_265
*1434 FILLER_38_27
*1435 FILLER_38_277
*1436 FILLER_38_289
*1437 FILLER_38_29
*1438 FILLER_38_297
*1439 FILLER_38_3
*1440 FILLER_38_41
*1441 FILLER_38_53
*1442 FILLER_38_65
*1443 FILLER_38_77
*1444 FILLER_38_83
*1445 FILLER_38_85
*1446 FILLER_38_97
*1447 FILLER_39_105
*1448 FILLER_39_111
*1449 FILLER_39_113
*1450 FILLER_39_125
*1451 FILLER_39_137
*1452 FILLER_39_149
*1453 FILLER_39_15
*1454 FILLER_39_161
*1455 FILLER_39_167
*1456 FILLER_39_169
*1457 FILLER_39_181
*1458 FILLER_39_193
*1459 FILLER_39_205
*1460 FILLER_39_217
*1461 FILLER_39_223
*1462 FILLER_39_225
*1463 FILLER_39_237
*1464 FILLER_39_249
*1465 FILLER_39_261
*1466 FILLER_39_27
*1467 FILLER_39_273
*1468 FILLER_39_279
*1469 FILLER_39_281
*1470 FILLER_39_293
*1471 FILLER_39_298